[root]
type=Root
children=system
eventq_index=0
full_system=true
sim_quantum=0
time_sync_enable=false
time_sync_period=100000000000
time_sync_spin_threshold=100000000

[system]
type=LinuxX86System
children=acpi_description_table_pointer clk_domain cpu0 cpu1 cpu2 cpu3 cpu4 cpu5 cpu6 cpu7 cpu_clk_domain cpu_voltage_domain e820_table gpu intel_mp_pointer intel_mp_table intrctrl iobus mem_ctrls pc ruby ruby_clk_domain smbios_table sys_port_proxy voltage_domain
acpi_description_table_pointer=system.acpi_description_table_pointer
boot_osflags=earlyprintk=ttyS0 console=ttyS0 lpj=7999923 root=/dev/hda1
cache_line_size=128
clk_domain=system.clk_domain
e820_table=system.e820_table
eventq_index=0
init_param=0
intel_mp_pointer=system.intel_mp_pointer
intel_mp_table=system.intel_mp_table
kernel=/net/grads/bjoardar/pvt/Desktop/system/binaries/x86_64-vmlinux-2.6.22.9
load_addr_mask=18446744073709551615
load_offset=0
mem_mode=timing
mem_ranges=0:3221225471
memories=system.mem_ctrls
num_work_ids=16
readfile=/net/grads/bjoardar/pvt/Desktop/gem5-gpu2/gem5/configs/boot/nn.rcS
smbios_table=system.smbios_table
symbolfile=
work_begin_ckpt_count=0
work_begin_cpu_id_exit=-1
work_begin_exit_count=0
work_cpus_ckpt_count=0
work_end_ckpt_count=0
work_end_exit_count=0
work_item_id=-1
system_port=system.sys_port_proxy.slave[0]

[system.acpi_description_table_pointer]
type=X86ACPIRSDP
children=xsdt
eventq_index=0
oem_id=
revision=2
rsdt=Null
xsdt=system.acpi_description_table_pointer.xsdt

[system.acpi_description_table_pointer.xsdt]
type=X86ACPIXSDT
creator_id=
creator_revision=0
entries=
eventq_index=0
oem_id=
oem_revision=0
oem_table_id=

[system.clk_domain]
type=SrcClockDomain
clock=1000
eventq_index=0
voltage_domain=system.voltage_domain

[system.cpu0]
type=TimingSimpleCPU
children=apic_clk_domain dtb interrupts isa itb tracer
branchPred=Null
checker=Null
clk_domain=system.cpu_clk_domain
cpu_id=0
do_checkpoint_insts=true
do_quiesce=true
do_statistics_insts=true
dtb=system.cpu0.dtb
eventq_index=0
function_trace=false
function_trace_start=0
interrupts=system.cpu0.interrupts
isa=system.cpu0.isa
itb=system.cpu0.itb
max_insts_all_threads=0
max_insts_any_thread=0
max_loads_all_threads=0
max_loads_any_thread=0
numThreads=1
profile=0
progress_interval=0
simpoint_start_insts=
socket_id=0
switched_out=false
system=system
tracer=system.cpu0.tracer
workload=
dcache_port=system.ruby.l1_cntrl0.sequencer.slave[2]
icache_port=system.ruby.l1_cntrl0.sequencer.slave[1]

[system.cpu0.apic_clk_domain]
type=DerivedClockDomain
clk_divider=16
clk_domain=system.cpu_clk_domain
eventq_index=0

[system.cpu0.dtb]
type=X86TLB
children=walker
eventq_index=0
size=64
walker=system.cpu0.dtb.walker

[system.cpu0.dtb.walker]
type=X86PagetableWalker
bypass_l1=false
clk_domain=system.cpu_clk_domain
eventq_index=0
num_squash_per_cycle=4
system=system
port=system.ruby.l1_cntrl0.sequencer.slave[4]

[system.cpu0.interrupts]
type=X86LocalApic
clk_domain=system.cpu0.apic_clk_domain
eventq_index=0
int_latency=1000
pio_addr=2305843009213693952
pio_latency=100000
system=system
int_master=system.ruby.l1_cntrl0.sequencer.slave[0]
int_slave=system.ruby.l1_cntrl0.sequencer.master[1]
pio=system.ruby.l1_cntrl0.sequencer.master[0]

[system.cpu0.isa]
type=X86ISA
eventq_index=0

[system.cpu0.itb]
type=X86TLB
children=walker
eventq_index=0
size=64
walker=system.cpu0.itb.walker

[system.cpu0.itb.walker]
type=X86PagetableWalker
bypass_l1=false
clk_domain=system.cpu_clk_domain
eventq_index=0
num_squash_per_cycle=4
system=system
port=system.ruby.l1_cntrl0.sequencer.slave[3]

[system.cpu0.tracer]
type=ExeTracer
eventq_index=0

[system.cpu1]
type=TimingSimpleCPU
children=apic_clk_domain dtb interrupts isa itb tracer
branchPred=Null
checker=Null
clk_domain=system.cpu_clk_domain
cpu_id=1
do_checkpoint_insts=true
do_quiesce=true
do_statistics_insts=true
dtb=system.cpu1.dtb
eventq_index=0
function_trace=false
function_trace_start=0
interrupts=system.cpu1.interrupts
isa=system.cpu1.isa
itb=system.cpu1.itb
max_insts_all_threads=0
max_insts_any_thread=0
max_loads_all_threads=0
max_loads_any_thread=0
numThreads=1
profile=0
progress_interval=0
simpoint_start_insts=
socket_id=0
switched_out=false
system=system
tracer=system.cpu1.tracer
workload=
dcache_port=system.ruby.l1_cntrl1.sequencer.slave[2]
icache_port=system.ruby.l1_cntrl1.sequencer.slave[1]

[system.cpu1.apic_clk_domain]
type=DerivedClockDomain
clk_divider=16
clk_domain=system.cpu_clk_domain
eventq_index=0

[system.cpu1.dtb]
type=X86TLB
children=walker
eventq_index=0
size=64
walker=system.cpu1.dtb.walker

[system.cpu1.dtb.walker]
type=X86PagetableWalker
bypass_l1=false
clk_domain=system.cpu_clk_domain
eventq_index=0
num_squash_per_cycle=4
system=system
port=system.ruby.l1_cntrl1.sequencer.slave[4]

[system.cpu1.interrupts]
type=X86LocalApic
clk_domain=system.cpu1.apic_clk_domain
eventq_index=0
int_latency=1000
pio_addr=2305843009213693952
pio_latency=100000
system=system
int_master=system.ruby.l1_cntrl1.sequencer.slave[0]
int_slave=system.ruby.l1_cntrl1.sequencer.master[1]
pio=system.ruby.l1_cntrl1.sequencer.master[0]

[system.cpu1.isa]
type=X86ISA
eventq_index=0

[system.cpu1.itb]
type=X86TLB
children=walker
eventq_index=0
size=64
walker=system.cpu1.itb.walker

[system.cpu1.itb.walker]
type=X86PagetableWalker
bypass_l1=false
clk_domain=system.cpu_clk_domain
eventq_index=0
num_squash_per_cycle=4
system=system
port=system.ruby.l1_cntrl1.sequencer.slave[3]

[system.cpu1.tracer]
type=ExeTracer
eventq_index=0

[system.cpu2]
type=TimingSimpleCPU
children=apic_clk_domain dtb interrupts isa itb tracer
branchPred=Null
checker=Null
clk_domain=system.cpu_clk_domain
cpu_id=2
do_checkpoint_insts=true
do_quiesce=true
do_statistics_insts=true
dtb=system.cpu2.dtb
eventq_index=0
function_trace=false
function_trace_start=0
interrupts=system.cpu2.interrupts
isa=system.cpu2.isa
itb=system.cpu2.itb
max_insts_all_threads=0
max_insts_any_thread=0
max_loads_all_threads=0
max_loads_any_thread=0
numThreads=1
profile=0
progress_interval=0
simpoint_start_insts=
socket_id=0
switched_out=false
system=system
tracer=system.cpu2.tracer
workload=
dcache_port=system.ruby.l1_cntrl2.sequencer.slave[2]
icache_port=system.ruby.l1_cntrl2.sequencer.slave[1]

[system.cpu2.apic_clk_domain]
type=DerivedClockDomain
clk_divider=16
clk_domain=system.cpu_clk_domain
eventq_index=0

[system.cpu2.dtb]
type=X86TLB
children=walker
eventq_index=0
size=64
walker=system.cpu2.dtb.walker

[system.cpu2.dtb.walker]
type=X86PagetableWalker
bypass_l1=false
clk_domain=system.cpu_clk_domain
eventq_index=0
num_squash_per_cycle=4
system=system
port=system.ruby.l1_cntrl2.sequencer.slave[4]

[system.cpu2.interrupts]
type=X86LocalApic
clk_domain=system.cpu2.apic_clk_domain
eventq_index=0
int_latency=1000
pio_addr=2305843009213693952
pio_latency=100000
system=system
int_master=system.ruby.l1_cntrl2.sequencer.slave[0]
int_slave=system.ruby.l1_cntrl2.sequencer.master[1]
pio=system.ruby.l1_cntrl2.sequencer.master[0]

[system.cpu2.isa]
type=X86ISA
eventq_index=0

[system.cpu2.itb]
type=X86TLB
children=walker
eventq_index=0
size=64
walker=system.cpu2.itb.walker

[system.cpu2.itb.walker]
type=X86PagetableWalker
bypass_l1=false
clk_domain=system.cpu_clk_domain
eventq_index=0
num_squash_per_cycle=4
system=system
port=system.ruby.l1_cntrl2.sequencer.slave[3]

[system.cpu2.tracer]
type=ExeTracer
eventq_index=0

[system.cpu3]
type=TimingSimpleCPU
children=apic_clk_domain dtb interrupts isa itb tracer
branchPred=Null
checker=Null
clk_domain=system.cpu_clk_domain
cpu_id=3
do_checkpoint_insts=true
do_quiesce=true
do_statistics_insts=true
dtb=system.cpu3.dtb
eventq_index=0
function_trace=false
function_trace_start=0
interrupts=system.cpu3.interrupts
isa=system.cpu3.isa
itb=system.cpu3.itb
max_insts_all_threads=0
max_insts_any_thread=0
max_loads_all_threads=0
max_loads_any_thread=0
numThreads=1
profile=0
progress_interval=0
simpoint_start_insts=
socket_id=0
switched_out=false
system=system
tracer=system.cpu3.tracer
workload=
dcache_port=system.ruby.l1_cntrl3.sequencer.slave[2]
icache_port=system.ruby.l1_cntrl3.sequencer.slave[1]

[system.cpu3.apic_clk_domain]
type=DerivedClockDomain
clk_divider=16
clk_domain=system.cpu_clk_domain
eventq_index=0

[system.cpu3.dtb]
type=X86TLB
children=walker
eventq_index=0
size=64
walker=system.cpu3.dtb.walker

[system.cpu3.dtb.walker]
type=X86PagetableWalker
bypass_l1=false
clk_domain=system.cpu_clk_domain
eventq_index=0
num_squash_per_cycle=4
system=system
port=system.ruby.l1_cntrl3.sequencer.slave[4]

[system.cpu3.interrupts]
type=X86LocalApic
clk_domain=system.cpu3.apic_clk_domain
eventq_index=0
int_latency=1000
pio_addr=2305843009213693952
pio_latency=100000
system=system
int_master=system.ruby.l1_cntrl3.sequencer.slave[0]
int_slave=system.ruby.l1_cntrl3.sequencer.master[1]
pio=system.ruby.l1_cntrl3.sequencer.master[0]

[system.cpu3.isa]
type=X86ISA
eventq_index=0

[system.cpu3.itb]
type=X86TLB
children=walker
eventq_index=0
size=64
walker=system.cpu3.itb.walker

[system.cpu3.itb.walker]
type=X86PagetableWalker
bypass_l1=false
clk_domain=system.cpu_clk_domain
eventq_index=0
num_squash_per_cycle=4
system=system
port=system.ruby.l1_cntrl3.sequencer.slave[3]

[system.cpu3.tracer]
type=ExeTracer
eventq_index=0

[system.cpu4]
type=TimingSimpleCPU
children=apic_clk_domain dtb interrupts isa itb tracer
branchPred=Null
checker=Null
clk_domain=system.cpu_clk_domain
cpu_id=4
do_checkpoint_insts=true
do_quiesce=true
do_statistics_insts=true
dtb=system.cpu4.dtb
eventq_index=0
function_trace=false
function_trace_start=0
interrupts=system.cpu4.interrupts
isa=system.cpu4.isa
itb=system.cpu4.itb
max_insts_all_threads=0
max_insts_any_thread=0
max_loads_all_threads=0
max_loads_any_thread=0
numThreads=1
profile=0
progress_interval=0
simpoint_start_insts=
socket_id=0
switched_out=false
system=system
tracer=system.cpu4.tracer
workload=
dcache_port=system.ruby.l1_cntrl4.sequencer.slave[2]
icache_port=system.ruby.l1_cntrl4.sequencer.slave[1]

[system.cpu4.apic_clk_domain]
type=DerivedClockDomain
clk_divider=16
clk_domain=system.cpu_clk_domain
eventq_index=0

[system.cpu4.dtb]
type=X86TLB
children=walker
eventq_index=0
size=64
walker=system.cpu4.dtb.walker

[system.cpu4.dtb.walker]
type=X86PagetableWalker
bypass_l1=false
clk_domain=system.cpu_clk_domain
eventq_index=0
num_squash_per_cycle=4
system=system
port=system.ruby.l1_cntrl4.sequencer.slave[4]

[system.cpu4.interrupts]
type=X86LocalApic
clk_domain=system.cpu4.apic_clk_domain
eventq_index=0
int_latency=1000
pio_addr=2305843009213693952
pio_latency=100000
system=system
int_master=system.ruby.l1_cntrl4.sequencer.slave[0]
int_slave=system.ruby.l1_cntrl4.sequencer.master[1]
pio=system.ruby.l1_cntrl4.sequencer.master[0]

[system.cpu4.isa]
type=X86ISA
eventq_index=0

[system.cpu4.itb]
type=X86TLB
children=walker
eventq_index=0
size=64
walker=system.cpu4.itb.walker

[system.cpu4.itb.walker]
type=X86PagetableWalker
bypass_l1=false
clk_domain=system.cpu_clk_domain
eventq_index=0
num_squash_per_cycle=4
system=system
port=system.ruby.l1_cntrl4.sequencer.slave[3]

[system.cpu4.tracer]
type=ExeTracer
eventq_index=0

[system.cpu5]
type=TimingSimpleCPU
children=apic_clk_domain dtb interrupts isa itb tracer
branchPred=Null
checker=Null
clk_domain=system.cpu_clk_domain
cpu_id=5
do_checkpoint_insts=true
do_quiesce=true
do_statistics_insts=true
dtb=system.cpu5.dtb
eventq_index=0
function_trace=false
function_trace_start=0
interrupts=system.cpu5.interrupts
isa=system.cpu5.isa
itb=system.cpu5.itb
max_insts_all_threads=0
max_insts_any_thread=0
max_loads_all_threads=0
max_loads_any_thread=0
numThreads=1
profile=0
progress_interval=0
simpoint_start_insts=
socket_id=0
switched_out=false
system=system
tracer=system.cpu5.tracer
workload=
dcache_port=system.ruby.l1_cntrl5.sequencer.slave[2]
icache_port=system.ruby.l1_cntrl5.sequencer.slave[1]

[system.cpu5.apic_clk_domain]
type=DerivedClockDomain
clk_divider=16
clk_domain=system.cpu_clk_domain
eventq_index=0

[system.cpu5.dtb]
type=X86TLB
children=walker
eventq_index=0
size=64
walker=system.cpu5.dtb.walker

[system.cpu5.dtb.walker]
type=X86PagetableWalker
bypass_l1=false
clk_domain=system.cpu_clk_domain
eventq_index=0
num_squash_per_cycle=4
system=system
port=system.ruby.l1_cntrl5.sequencer.slave[4]

[system.cpu5.interrupts]
type=X86LocalApic
clk_domain=system.cpu5.apic_clk_domain
eventq_index=0
int_latency=1000
pio_addr=2305843009213693952
pio_latency=100000
system=system
int_master=system.ruby.l1_cntrl5.sequencer.slave[0]
int_slave=system.ruby.l1_cntrl5.sequencer.master[1]
pio=system.ruby.l1_cntrl5.sequencer.master[0]

[system.cpu5.isa]
type=X86ISA
eventq_index=0

[system.cpu5.itb]
type=X86TLB
children=walker
eventq_index=0
size=64
walker=system.cpu5.itb.walker

[system.cpu5.itb.walker]
type=X86PagetableWalker
bypass_l1=false
clk_domain=system.cpu_clk_domain
eventq_index=0
num_squash_per_cycle=4
system=system
port=system.ruby.l1_cntrl5.sequencer.slave[3]

[system.cpu5.tracer]
type=ExeTracer
eventq_index=0

[system.cpu6]
type=TimingSimpleCPU
children=apic_clk_domain dtb interrupts isa itb tracer
branchPred=Null
checker=Null
clk_domain=system.cpu_clk_domain
cpu_id=6
do_checkpoint_insts=true
do_quiesce=true
do_statistics_insts=true
dtb=system.cpu6.dtb
eventq_index=0
function_trace=false
function_trace_start=0
interrupts=system.cpu6.interrupts
isa=system.cpu6.isa
itb=system.cpu6.itb
max_insts_all_threads=0
max_insts_any_thread=0
max_loads_all_threads=0
max_loads_any_thread=0
numThreads=1
profile=0
progress_interval=0
simpoint_start_insts=
socket_id=0
switched_out=false
system=system
tracer=system.cpu6.tracer
workload=
dcache_port=system.ruby.l1_cntrl6.sequencer.slave[2]
icache_port=system.ruby.l1_cntrl6.sequencer.slave[1]

[system.cpu6.apic_clk_domain]
type=DerivedClockDomain
clk_divider=16
clk_domain=system.cpu_clk_domain
eventq_index=0

[system.cpu6.dtb]
type=X86TLB
children=walker
eventq_index=0
size=64
walker=system.cpu6.dtb.walker

[system.cpu6.dtb.walker]
type=X86PagetableWalker
bypass_l1=false
clk_domain=system.cpu_clk_domain
eventq_index=0
num_squash_per_cycle=4
system=system
port=system.ruby.l1_cntrl6.sequencer.slave[4]

[system.cpu6.interrupts]
type=X86LocalApic
clk_domain=system.cpu6.apic_clk_domain
eventq_index=0
int_latency=1000
pio_addr=2305843009213693952
pio_latency=100000
system=system
int_master=system.ruby.l1_cntrl6.sequencer.slave[0]
int_slave=system.ruby.l1_cntrl6.sequencer.master[1]
pio=system.ruby.l1_cntrl6.sequencer.master[0]

[system.cpu6.isa]
type=X86ISA
eventq_index=0

[system.cpu6.itb]
type=X86TLB
children=walker
eventq_index=0
size=64
walker=system.cpu6.itb.walker

[system.cpu6.itb.walker]
type=X86PagetableWalker
bypass_l1=false
clk_domain=system.cpu_clk_domain
eventq_index=0
num_squash_per_cycle=4
system=system
port=system.ruby.l1_cntrl6.sequencer.slave[3]

[system.cpu6.tracer]
type=ExeTracer
eventq_index=0

[system.cpu7]
type=TimingSimpleCPU
children=apic_clk_domain dtb interrupts isa itb tracer
branchPred=Null
checker=Null
clk_domain=system.cpu_clk_domain
cpu_id=7
do_checkpoint_insts=true
do_quiesce=true
do_statistics_insts=true
dtb=system.cpu7.dtb
eventq_index=0
function_trace=false
function_trace_start=0
interrupts=system.cpu7.interrupts
isa=system.cpu7.isa
itb=system.cpu7.itb
max_insts_all_threads=0
max_insts_any_thread=0
max_loads_all_threads=0
max_loads_any_thread=0
numThreads=1
profile=0
progress_interval=0
simpoint_start_insts=
socket_id=0
switched_out=false
system=system
tracer=system.cpu7.tracer
workload=
dcache_port=system.ruby.l1_cntrl7.sequencer.slave[2]
icache_port=system.ruby.l1_cntrl7.sequencer.slave[1]

[system.cpu7.apic_clk_domain]
type=DerivedClockDomain
clk_divider=16
clk_domain=system.cpu_clk_domain
eventq_index=0

[system.cpu7.dtb]
type=X86TLB
children=walker
eventq_index=0
size=64
walker=system.cpu7.dtb.walker

[system.cpu7.dtb.walker]
type=X86PagetableWalker
bypass_l1=false
clk_domain=system.cpu_clk_domain
eventq_index=0
num_squash_per_cycle=4
system=system
port=system.ruby.l1_cntrl7.sequencer.slave[4]

[system.cpu7.interrupts]
type=X86LocalApic
clk_domain=system.cpu7.apic_clk_domain
eventq_index=0
int_latency=1000
pio_addr=2305843009213693952
pio_latency=100000
system=system
int_master=system.ruby.l1_cntrl7.sequencer.slave[0]
int_slave=system.ruby.l1_cntrl7.sequencer.master[1]
pio=system.ruby.l1_cntrl7.sequencer.master[0]

[system.cpu7.isa]
type=X86ISA
eventq_index=0

[system.cpu7.itb]
type=X86TLB
children=walker
eventq_index=0
size=64
walker=system.cpu7.itb.walker

[system.cpu7.itb.walker]
type=X86PagetableWalker
bypass_l1=false
clk_domain=system.cpu_clk_domain
eventq_index=0
num_squash_per_cycle=4
system=system
port=system.ruby.l1_cntrl7.sequencer.slave[3]

[system.cpu7.tracer]
type=ExeTracer
eventq_index=0

[system.cpu_clk_domain]
type=SrcClockDomain
clock=500
eventq_index=0
voltage_domain=system.cpu_voltage_domain

[system.cpu_voltage_domain]
type=VoltageDomain
eventq_index=0
voltage=1.000000

[system.e820_table]
type=X86E820Table
children=entries0 entries1 entries2 entries3
entries=system.e820_table.entries0 system.e820_table.entries1 system.e820_table.entries2 system.e820_table.entries3
eventq_index=0

[system.e820_table.entries0]
type=X86E820Entry
addr=0
eventq_index=0
range_type=1
size=654336

[system.e820_table.entries1]
type=X86E820Entry
addr=654336
eventq_index=0
range_type=2
size=394240

[system.e820_table.entries2]
type=X86E820Entry
addr=1048576
eventq_index=0
range_type=1
size=3220176896

[system.e820_table.entries3]
type=X86E820Entry
addr=4294901760
eventq_index=0
range_type=2
size=65536

[system.gpu]
type=CudaGPU
children=ce clk_domain cores_wrapper dram_wrapper icnt_wrapper l2_wrapper shader_cores00 shader_cores01 shader_cores02 shader_cores03 shader_cores04 shader_cores05 shader_cores06 shader_cores07 shader_cores08 shader_cores09 shader_cores10 shader_cores11 shader_cores12 shader_cores13 shader_cores14 shader_cores15 shader_cores16 shader_cores17 shader_cores18 shader_cores19 shader_cores20 shader_cores21 shader_cores22 shader_cores23 shader_cores24 shader_cores25 shader_cores26 shader_cores27 shader_cores28 shader_cores29 shader_cores30 shader_cores31 shader_cores32 shader_cores33 shader_cores34 shader_cores35 shader_cores36 shader_cores37 shader_cores38 shader_cores39 shader_mmu
access_host_pagetable=false
clk_domain=system.gpu.clk_domain
config_path=/local/users/bjoardar/journ_tc/r5/test/nn//gpgpusim.config
cores_wrapper=system.gpu.cores_wrapper
dram_wrapper=system.gpu.dram_wrapper
dump_kernel_stats=false
eventq_index=0
gpu_memory_range=0:3221225471
icnt_wrapper=system.gpu.icnt_wrapper
kernel_launch_delay=2.5e-07
kernel_return_delay=1e-07
l2_wrapper=system.gpu.l2_wrapper
manage_gpu_memory=false
ruby=system.ruby
shader_mmu=system.gpu.shader_mmu
shared_mem_delay=1
stats_filename=gpu_stats.txt
sys=system
warp_size=32

[system.gpu.ce]
type=GPUCopyEngine
children=device_dtb host_dtb
clk_domain=system.gpu.clk_domain
device_dtb=system.gpu.ce.device_dtb
driver_delay=5000000
eventq_index=0
gpu=system.gpu
host_dtb=system.gpu.ce.host_dtb
id=-1
stats_filename=ce_stats.txt
sys=system
device_port=system.ruby.l1_cntrl_ce.sequencer.slave[1]
host_port=system.ruby.l1_cntrl_ce.sequencer.slave[0]

[system.gpu.ce.device_dtb]
type=ShaderTLB
access_host_pagetable=true
associativity=4
entries=0
eventq_index=0
gpu=system.gpu
hit_latency=1

[system.gpu.ce.host_dtb]
type=ShaderTLB
access_host_pagetable=true
associativity=4
entries=0
eventq_index=0
gpu=system.gpu
hit_latency=1

[system.gpu.clk_domain]
type=SrcClockDomain
children=voltage_domain
clock=1429
eventq_index=0
voltage_domain=system.gpu.clk_domain.voltage_domain

[system.gpu.clk_domain.voltage_domain]
type=VoltageDomain
eventq_index=0
voltage=1.000000

[system.gpu.cores_wrapper]
type=GPGPUSimComponentWrapper
clk_domain=system.gpu.clk_domain
eventq_index=0

[system.gpu.dram_wrapper]
type=GPGPUSimComponentWrapper
children=clk_domain
clk_domain=system.gpu.dram_wrapper.clk_domain
eventq_index=0

[system.gpu.dram_wrapper.clk_domain]
type=SrcClockDomain
clock=541
eventq_index=0
voltage_domain=system.gpu.clk_domain.voltage_domain

[system.gpu.icnt_wrapper]
type=GPGPUSimComponentWrapper
children=clk_domain
clk_domain=system.gpu.icnt_wrapper.clk_domain
eventq_index=0

[system.gpu.icnt_wrapper.clk_domain]
type=DerivedClockDomain
clk_divider=2
clk_domain=system.gpu.clk_domain
eventq_index=0

[system.gpu.l2_wrapper]
type=GPGPUSimComponentWrapper
clk_domain=system.gpu.clk_domain
eventq_index=0

[system.gpu.shader_cores00]
type=CudaCore
children=itb lsq
clk_domain=system.gpu.clk_domain
eventq_index=0
gpu=system.gpu
id=0
itb=system.gpu.shader_cores00.itb
sys=system
warp_contexts=48
inst_port=system.ruby.l1_cntrl_sp00.sequencer.slave[0]
lsq_ctrl_port=system.gpu.shader_cores00.lsq.control_port
lsq_port=system.gpu.shader_cores00.lsq.lane_port[0] system.gpu.shader_cores00.lsq.lane_port[1] system.gpu.shader_cores00.lsq.lane_port[2] system.gpu.shader_cores00.lsq.lane_port[3] system.gpu.shader_cores00.lsq.lane_port[4] system.gpu.shader_cores00.lsq.lane_port[5] system.gpu.shader_cores00.lsq.lane_port[6] system.gpu.shader_cores00.lsq.lane_port[7] system.gpu.shader_cores00.lsq.lane_port[8] system.gpu.shader_cores00.lsq.lane_port[9] system.gpu.shader_cores00.lsq.lane_port[10] system.gpu.shader_cores00.lsq.lane_port[11] system.gpu.shader_cores00.lsq.lane_port[12] system.gpu.shader_cores00.lsq.lane_port[13] system.gpu.shader_cores00.lsq.lane_port[14] system.gpu.shader_cores00.lsq.lane_port[15] system.gpu.shader_cores00.lsq.lane_port[16] system.gpu.shader_cores00.lsq.lane_port[17] system.gpu.shader_cores00.lsq.lane_port[18] system.gpu.shader_cores00.lsq.lane_port[19] system.gpu.shader_cores00.lsq.lane_port[20] system.gpu.shader_cores00.lsq.lane_port[21] system.gpu.shader_cores00.lsq.lane_port[22] system.gpu.shader_cores00.lsq.lane_port[23] system.gpu.shader_cores00.lsq.lane_port[24] system.gpu.shader_cores00.lsq.lane_port[25] system.gpu.shader_cores00.lsq.lane_port[26] system.gpu.shader_cores00.lsq.lane_port[27] system.gpu.shader_cores00.lsq.lane_port[28] system.gpu.shader_cores00.lsq.lane_port[29] system.gpu.shader_cores00.lsq.lane_port[30] system.gpu.shader_cores00.lsq.lane_port[31]

[system.gpu.shader_cores00.itb]
type=ShaderTLB
access_host_pagetable=true
associativity=4
entries=0
eventq_index=0
gpu=system.gpu
hit_latency=1

[system.gpu.shader_cores00.lsq]
type=ShaderLSQ
children=data_tlb
cache_line_size=128
clk_domain=system.gpu.clk_domain
data_tlb=system.gpu.shader_cores00.lsq.data_tlb
eject_width=1
eventq_index=0
forward_flush=false
inject_width=1
l1_tag_cycles=4
latency=14
num_warp_inst_buffers=64
warp_contexts=48
warp_size=32
cache_port=system.ruby.l1_cntrl_sp00.sequencer.slave[1]
control_port=system.gpu.shader_cores00.lsq_ctrl_port
lane_port=system.gpu.shader_cores00.lsq_port[0] system.gpu.shader_cores00.lsq_port[1] system.gpu.shader_cores00.lsq_port[2] system.gpu.shader_cores00.lsq_port[3] system.gpu.shader_cores00.lsq_port[4] system.gpu.shader_cores00.lsq_port[5] system.gpu.shader_cores00.lsq_port[6] system.gpu.shader_cores00.lsq_port[7] system.gpu.shader_cores00.lsq_port[8] system.gpu.shader_cores00.lsq_port[9] system.gpu.shader_cores00.lsq_port[10] system.gpu.shader_cores00.lsq_port[11] system.gpu.shader_cores00.lsq_port[12] system.gpu.shader_cores00.lsq_port[13] system.gpu.shader_cores00.lsq_port[14] system.gpu.shader_cores00.lsq_port[15] system.gpu.shader_cores00.lsq_port[16] system.gpu.shader_cores00.lsq_port[17] system.gpu.shader_cores00.lsq_port[18] system.gpu.shader_cores00.lsq_port[19] system.gpu.shader_cores00.lsq_port[20] system.gpu.shader_cores00.lsq_port[21] system.gpu.shader_cores00.lsq_port[22] system.gpu.shader_cores00.lsq_port[23] system.gpu.shader_cores00.lsq_port[24] system.gpu.shader_cores00.lsq_port[25] system.gpu.shader_cores00.lsq_port[26] system.gpu.shader_cores00.lsq_port[27] system.gpu.shader_cores00.lsq_port[28] system.gpu.shader_cores00.lsq_port[29] system.gpu.shader_cores00.lsq_port[30] system.gpu.shader_cores00.lsq_port[31]

[system.gpu.shader_cores00.lsq.data_tlb]
type=ShaderTLB
access_host_pagetable=true
associativity=4
entries=0
eventq_index=0
gpu=system.gpu
hit_latency=1

[system.gpu.shader_cores01]
type=CudaCore
children=itb lsq
clk_domain=system.gpu.clk_domain
eventq_index=0
gpu=system.gpu
id=1
itb=system.gpu.shader_cores01.itb
sys=system
warp_contexts=48
inst_port=system.ruby.l1_cntrl_sp01.sequencer.slave[0]
lsq_ctrl_port=system.gpu.shader_cores01.lsq.control_port
lsq_port=system.gpu.shader_cores01.lsq.lane_port[0] system.gpu.shader_cores01.lsq.lane_port[1] system.gpu.shader_cores01.lsq.lane_port[2] system.gpu.shader_cores01.lsq.lane_port[3] system.gpu.shader_cores01.lsq.lane_port[4] system.gpu.shader_cores01.lsq.lane_port[5] system.gpu.shader_cores01.lsq.lane_port[6] system.gpu.shader_cores01.lsq.lane_port[7] system.gpu.shader_cores01.lsq.lane_port[8] system.gpu.shader_cores01.lsq.lane_port[9] system.gpu.shader_cores01.lsq.lane_port[10] system.gpu.shader_cores01.lsq.lane_port[11] system.gpu.shader_cores01.lsq.lane_port[12] system.gpu.shader_cores01.lsq.lane_port[13] system.gpu.shader_cores01.lsq.lane_port[14] system.gpu.shader_cores01.lsq.lane_port[15] system.gpu.shader_cores01.lsq.lane_port[16] system.gpu.shader_cores01.lsq.lane_port[17] system.gpu.shader_cores01.lsq.lane_port[18] system.gpu.shader_cores01.lsq.lane_port[19] system.gpu.shader_cores01.lsq.lane_port[20] system.gpu.shader_cores01.lsq.lane_port[21] system.gpu.shader_cores01.lsq.lane_port[22] system.gpu.shader_cores01.lsq.lane_port[23] system.gpu.shader_cores01.lsq.lane_port[24] system.gpu.shader_cores01.lsq.lane_port[25] system.gpu.shader_cores01.lsq.lane_port[26] system.gpu.shader_cores01.lsq.lane_port[27] system.gpu.shader_cores01.lsq.lane_port[28] system.gpu.shader_cores01.lsq.lane_port[29] system.gpu.shader_cores01.lsq.lane_port[30] system.gpu.shader_cores01.lsq.lane_port[31]

[system.gpu.shader_cores01.itb]
type=ShaderTLB
access_host_pagetable=true
associativity=4
entries=0
eventq_index=0
gpu=system.gpu
hit_latency=1

[system.gpu.shader_cores01.lsq]
type=ShaderLSQ
children=data_tlb
cache_line_size=128
clk_domain=system.gpu.clk_domain
data_tlb=system.gpu.shader_cores01.lsq.data_tlb
eject_width=1
eventq_index=0
forward_flush=false
inject_width=1
l1_tag_cycles=4
latency=14
num_warp_inst_buffers=64
warp_contexts=48
warp_size=32
cache_port=system.ruby.l1_cntrl_sp01.sequencer.slave[1]
control_port=system.gpu.shader_cores01.lsq_ctrl_port
lane_port=system.gpu.shader_cores01.lsq_port[0] system.gpu.shader_cores01.lsq_port[1] system.gpu.shader_cores01.lsq_port[2] system.gpu.shader_cores01.lsq_port[3] system.gpu.shader_cores01.lsq_port[4] system.gpu.shader_cores01.lsq_port[5] system.gpu.shader_cores01.lsq_port[6] system.gpu.shader_cores01.lsq_port[7] system.gpu.shader_cores01.lsq_port[8] system.gpu.shader_cores01.lsq_port[9] system.gpu.shader_cores01.lsq_port[10] system.gpu.shader_cores01.lsq_port[11] system.gpu.shader_cores01.lsq_port[12] system.gpu.shader_cores01.lsq_port[13] system.gpu.shader_cores01.lsq_port[14] system.gpu.shader_cores01.lsq_port[15] system.gpu.shader_cores01.lsq_port[16] system.gpu.shader_cores01.lsq_port[17] system.gpu.shader_cores01.lsq_port[18] system.gpu.shader_cores01.lsq_port[19] system.gpu.shader_cores01.lsq_port[20] system.gpu.shader_cores01.lsq_port[21] system.gpu.shader_cores01.lsq_port[22] system.gpu.shader_cores01.lsq_port[23] system.gpu.shader_cores01.lsq_port[24] system.gpu.shader_cores01.lsq_port[25] system.gpu.shader_cores01.lsq_port[26] system.gpu.shader_cores01.lsq_port[27] system.gpu.shader_cores01.lsq_port[28] system.gpu.shader_cores01.lsq_port[29] system.gpu.shader_cores01.lsq_port[30] system.gpu.shader_cores01.lsq_port[31]

[system.gpu.shader_cores01.lsq.data_tlb]
type=ShaderTLB
access_host_pagetable=true
associativity=4
entries=0
eventq_index=0
gpu=system.gpu
hit_latency=1

[system.gpu.shader_cores02]
type=CudaCore
children=itb lsq
clk_domain=system.gpu.clk_domain
eventq_index=0
gpu=system.gpu
id=2
itb=system.gpu.shader_cores02.itb
sys=system
warp_contexts=48
inst_port=system.ruby.l1_cntrl_sp02.sequencer.slave[0]
lsq_ctrl_port=system.gpu.shader_cores02.lsq.control_port
lsq_port=system.gpu.shader_cores02.lsq.lane_port[0] system.gpu.shader_cores02.lsq.lane_port[1] system.gpu.shader_cores02.lsq.lane_port[2] system.gpu.shader_cores02.lsq.lane_port[3] system.gpu.shader_cores02.lsq.lane_port[4] system.gpu.shader_cores02.lsq.lane_port[5] system.gpu.shader_cores02.lsq.lane_port[6] system.gpu.shader_cores02.lsq.lane_port[7] system.gpu.shader_cores02.lsq.lane_port[8] system.gpu.shader_cores02.lsq.lane_port[9] system.gpu.shader_cores02.lsq.lane_port[10] system.gpu.shader_cores02.lsq.lane_port[11] system.gpu.shader_cores02.lsq.lane_port[12] system.gpu.shader_cores02.lsq.lane_port[13] system.gpu.shader_cores02.lsq.lane_port[14] system.gpu.shader_cores02.lsq.lane_port[15] system.gpu.shader_cores02.lsq.lane_port[16] system.gpu.shader_cores02.lsq.lane_port[17] system.gpu.shader_cores02.lsq.lane_port[18] system.gpu.shader_cores02.lsq.lane_port[19] system.gpu.shader_cores02.lsq.lane_port[20] system.gpu.shader_cores02.lsq.lane_port[21] system.gpu.shader_cores02.lsq.lane_port[22] system.gpu.shader_cores02.lsq.lane_port[23] system.gpu.shader_cores02.lsq.lane_port[24] system.gpu.shader_cores02.lsq.lane_port[25] system.gpu.shader_cores02.lsq.lane_port[26] system.gpu.shader_cores02.lsq.lane_port[27] system.gpu.shader_cores02.lsq.lane_port[28] system.gpu.shader_cores02.lsq.lane_port[29] system.gpu.shader_cores02.lsq.lane_port[30] system.gpu.shader_cores02.lsq.lane_port[31]

[system.gpu.shader_cores02.itb]
type=ShaderTLB
access_host_pagetable=true
associativity=4
entries=0
eventq_index=0
gpu=system.gpu
hit_latency=1

[system.gpu.shader_cores02.lsq]
type=ShaderLSQ
children=data_tlb
cache_line_size=128
clk_domain=system.gpu.clk_domain
data_tlb=system.gpu.shader_cores02.lsq.data_tlb
eject_width=1
eventq_index=0
forward_flush=false
inject_width=1
l1_tag_cycles=4
latency=14
num_warp_inst_buffers=64
warp_contexts=48
warp_size=32
cache_port=system.ruby.l1_cntrl_sp02.sequencer.slave[1]
control_port=system.gpu.shader_cores02.lsq_ctrl_port